!- Windows Line endings 

Version,
    9.0;                      !- Version Identifier

SimulationControl,
    No,                       !- Do Zone Sizing Calculation
    No,                       !- Do System Sizing Calculation
    No,                       !- Do Plant Sizing Calculation
    No,                       !- Run Simulation for Sizing Periods
    Yes;                      !- Run Simulation for Weather File Run Periods

Building,
    bldg,                     !- Name
    0,                        !- North Axis
    City,                     !- Terrain
    0.04,                     !- Loads Convergence Tolerance Value
    0.4,                      !- Temperature Convergence Tolerance Value
    FullInteriorAndExterior,    !- Solar Distribution
    25,                       !- Maximum Number of Warmup Days
    6;                        !- Minimum Number of Warmup Days

Timestep,
    1;                        !- Number of Timesteps per Hour

Site:Location,
    DENVER_STAPLETON_CO_USA_WMO_724690,    !- Name
    39.77,                    !- Latitude
    -104.87,                  !- Longitude
    -7,                       !- Time Zone
    1611;                     !- Elevation

SizingPeriod:DesignDay,
    Summer Design Day in Untitled,    !- Name
    7,                        !- Month
    15,                       !- Day of Month
    SummerDesignDay,          !- Day Type
    32,                       !- Maximum DryBulb Temperature
    7.9,                      !- Daily DryBulb Temperature Range
    ,                         !- DryBulb Temperature Range Modifier Type
    ,                         !- DryBulb Temperature Range Modifier Day Schedule Name
    WetBulb,                  !- Humidity Condition Type
    25.2,                     !- Wetbulb or DewPoint at Maximum DryBulb
    ,                         !- Humidity Condition Day Schedule Name
    ,                         !- Humidity Ratio at Maximum DryBulb
    ,                         !- Enthalpy at Maximum DryBulb
    ,                         !- Daily WetBulb Temperature Range
    101097,                   !- Barometric Pressure
    0,                        !- Wind Speed
    0,                        !- Wind Direction
    No,                       !- Rain Indicator
    No,                       !- Snow Indicator
    No,                       !- Daylight Saving Time Indicator
    ,                         !- Solar Model Indicator
    ,                         !- Beam Solar Day Schedule Name
    ,                         !- Diffuse Solar Day Schedule Name
    ,                         !- ASHRAE Clear Sky Optical Depth for Beam Irradiance taub
    ,                         !- ASHRAE Clear Sky Optical Depth for Diffuse Irradiance taud
    0.98;                     !- Sky Clearness

SizingPeriod:DesignDay,
    Winter Design Day in Untitled,    !- Name
    1,                        !- Month
    15,                       !- Day of Month
    WinterDesignDay,          !- Day Type
    -13.9,                    !- Maximum DryBulb Temperature
    0,                        !- Daily DryBulb Temperature Range
    ,                         !- DryBulb Temperature Range Modifier Type
    ,                         !- DryBulb Temperature Range Modifier Day Schedule Name
    WetBulb,                  !- Humidity Condition Type
    -13.9,                    !- Wetbulb or DewPoint at Maximum DryBulb
    ,                         !- Humidity Condition Day Schedule Name
    ,                         !- Humidity Ratio at Maximum DryBulb
    ,                         !- Enthalpy at Maximum DryBulb
    ,                         !- Daily WetBulb Temperature Range
    101097,                   !- Barometric Pressure
    9.4,                      !- Wind Speed
    0,                        !- Wind Direction
    No,                       !- Rain Indicator
    No,                       !- Snow Indicator
    No,                       !- Daylight Saving Time Indicator
    ,                         !- Solar Model Indicator
    ,                         !- Beam Solar Day Schedule Name
    ,                         !- Diffuse Solar Day Schedule Name
    ,                         !- ASHRAE Clear Sky Optical Depth for Beam Irradiance taub
    ,                         !- ASHRAE Clear Sky Optical Depth for Diffuse Irradiance taud
    0;                        !- Sky Clearness

RunPeriod,
    ,                         !- Name
    1,                        !- Begin Month
    1,                        !- Begin Day of Month
    ,                         !- Begin Year
    12,                       !- End Month
    31,                       !- End Day of Month
    ,                         !- End Year
    Wednesday,                !- Day of Week for Start Day
    Yes,                      !- Use Weather File Holidays and Special Days
    Yes,                      !- Use Weather File Daylight Saving Period
    No,                       !- Apply Weekend Holiday Rule
    Yes,                      !- Use Weather File Rain Indicators
    Yes;                      !- Use Weather File Snow Indicators

ScheduleTypeLimits,
    Any Number;               !- Name

ScheduleTypeLimits,
    Fraction,                 !- Name
    0,                        !- Lower Limit Value
    1,                        !- Upper Limit Value
    CONTINUOUS;               !- Numeric Type

ScheduleTypeLimits,
    Temperature,              !- Name
    -60,                      !- Lower Limit Value
    200,                      !- Upper Limit Value
    CONTINUOUS;               !- Numeric Type

ScheduleTypeLimits,
    Control Type,             !- Name
    0,                        !- Lower Limit Value
    4,                        !- Upper Limit Value
    DISCRETE;                 !- Numeric Type

ScheduleTypeLimits,
    On/Off,                   !- Name
    0,                        !- Lower Limit Value
    1,                        !- Upper Limit Value
    DISCRETE;                 !- Numeric Type

Schedule:Day:Hourly,
    0,                        !- Name
    Any Number,               !- Schedule Type Limits Name
    0,                        !- Hour 1
    0,                        !- Hour 2
    0,                        !- Hour 3
    0,                        !- Hour 4
    0,                        !- Hour 5
    0,                        !- Hour 6
    0,                        !- Hour 7
    0,                        !- Hour 8
    0,                        !- Hour 9
    0,                        !- Hour 10
    0,                        !- Hour 11
    0,                        !- Hour 12
    0,                        !- Hour 13
    0,                        !- Hour 14
    0,                        !- Hour 15
    0,                        !- Hour 16
    0,                        !- Hour 17
    0,                        !- Hour 18
    0,                        !- Hour 19
    0,                        !- Hour 20
    0,                        !- Hour 21
    0,                        !- Hour 22
    0,                        !- Hour 23
    0;                        !- Hour 24

Schedule:Day:Hourly,
    50,                       !- Name
    Any Number,               !- Schedule Type Limits Name
    50,                       !- Hour 1
    50,                       !- Hour 2
    50,                       !- Hour 3
    50,                       !- Hour 4
    50,                       !- Hour 5
    50,                       !- Hour 6
    50,                       !- Hour 7
    50,                       !- Hour 8
    50,                       !- Hour 9
    50,                       !- Hour 10
    50,                       !- Hour 11
    50,                       !- Hour 12
    50,                       !- Hour 13
    50,                       !- Hour 14
    50,                       !- Hour 15
    50,                       !- Hour 16
    50,                       !- Hour 17
    50,                       !- Hour 18
    50,                       !- Hour 19
    50,                       !- Hour 20
    50,                       !- Hour 21
    50,                       !- Hour 22
    50,                       !- Hour 23
    50;                       !- Hour 24

Schedule:Day:Hourly,
    Off,                      !- Name
    Fraction,                 !- Schedule Type Limits Name
    0,                        !- Hour 1
    0,                        !- Hour 2
    0,                        !- Hour 3
    0,                        !- Hour 4
    0,                        !- Hour 5
    0,                        !- Hour 6
    0,                        !- Hour 7
    0,                        !- Hour 8
    0,                        !- Hour 9
    0,                        !- Hour 10
    0,                        !- Hour 11
    0,                        !- Hour 12
    0,                        !- Hour 13
    0,                        !- Hour 14
    0,                        !- Hour 15
    0,                        !- Hour 16
    0,                        !- Hour 17
    0,                        !- Hour 18
    0,                        !- Hour 19
    0,                        !- Hour 20
    0,                        !- Hour 21
    0,                        !- Hour 22
    0,                        !- Hour 23
    0;                        !- Hour 24

Schedule:Day:Hourly,
    Summer Control Type Day Sch,    !- Name
    Control Type,             !- Schedule Type Limits Name
    4,                        !- Hour 1
    4,                        !- Hour 2
    4,                        !- Hour 3
    4,                        !- Hour 4
    4,                        !- Hour 5
    4,                        !- Hour 6
    4,                        !- Hour 7
    4,                        !- Hour 8
    4,                        !- Hour 9
    4,                        !- Hour 10
    4,                        !- Hour 11
    4,                        !- Hour 12
    4,                        !- Hour 13
    4,                        !- Hour 14
    4,                        !- Hour 15
    4,                        !- Hour 16
    4,                        !- Hour 17
    4,                        !- Hour 18
    4,                        !- Hour 19
    4,                        !- Hour 20
    4,                        !- Hour 21
    4,                        !- Hour 22
    4,                        !- Hour 23
    4;                        !- Hour 24

Schedule:Day:Hourly,
    Winter Control Type Day Sch,    !- Name
    Control Type,             !- Schedule Type Limits Name
    4,                        !- Hour 1
    4,                        !- Hour 2
    4,                        !- Hour 3
    4,                        !- Hour 4
    4,                        !- Hour 5
    4,                        !- Hour 6
    4,                        !- Hour 7
    4,                        !- Hour 8
    4,                        !- Hour 9
    4,                        !- Hour 10
    4,                        !- Hour 11
    4,                        !- Hour 12
    4,                        !- Hour 13
    4,                        !- Hour 14
    4,                        !- Hour 15
    4,                        !- Hour 16
    4,                        !- Hour 17
    4,                        !- Hour 18
    4,                        !- Hour 19
    4,                        !- Hour 20
    4,                        !- Hour 21
    4,                        !- Hour 22
    4,                        !- Hour 23
    4;                        !- Hour 24

Schedule:Day:Hourly,
    Summer Control Type Day Sch - cool,    !- Name
    Control Type,             !- Schedule Type Limits Name
    2,                        !- Hour 1
    2,                        !- Hour 2
    2,                        !- Hour 3
    2,                        !- Hour 4
    2,                        !- Hour 5
    2,                        !- Hour 6
    2,                        !- Hour 7
    2,                        !- Hour 8
    2,                        !- Hour 9
    2,                        !- Hour 10
    2,                        !- Hour 11
    2,                        !- Hour 12
    2,                        !- Hour 13
    2,                        !- Hour 14
    2,                        !- Hour 15
    2,                        !- Hour 16
    2,                        !- Hour 17
    2,                        !- Hour 18
    2,                        !- Hour 19
    2,                        !- Hour 20
    2,                        !- Hour 21
    2,                        !- Hour 22
    2,                        !- Hour 23
    2;                        !- Hour 24

Schedule:Day:Hourly,
    Winter Control Type Day Sch - heat,    !- Name
    Control Type,             !- Schedule Type Limits Name
    1,                        !- Hour 1
    1,                        !- Hour 2
    1,                        !- Hour 3
    1,                        !- Hour 4
    1,                        !- Hour 5
    1,                        !- Hour 6
    1,                        !- Hour 7
    1,                        !- Hour 8
    1,                        !- Hour 9
    1,                        !- Hour 10
    1,                        !- Hour 11
    1,                        !- Hour 12
    1,                        !- Hour 13
    1,                        !- Hour 14
    1,                        !- Hour 15
    1,                        !- Hour 16
    1,                        !- Hour 17
    1,                        !- Hour 18
    1,                        !- Hour 19
    1,                        !- Hour 20
    1,                        !- Hour 21
    1,                        !- Hour 22
    1,                        !- Hour 23
    1;                        !- Hour 24

Schedule:Week:Daily,
    Off,                      !- Name
    Off,                      !- Sunday ScheduleDay Name
    Off,                      !- Monday ScheduleDay Name
    Off,                      !- Tuesday ScheduleDay Name
    Off,                      !- Wednesday ScheduleDay Name
    Off,                      !- Thursday ScheduleDay Name
    Off,                      !- Friday ScheduleDay Name
    Off,                      !- Saturday ScheduleDay Name
    Off,                      !- Holiday ScheduleDay Name
    Off,                      !- SummerDesignDay ScheduleDay Name
    Off,                      !- WinterDesignDay ScheduleDay Name
    Off,                      !- CustomDay1 ScheduleDay Name
    Off;                      !- CustomDay2 ScheduleDay Name

Schedule:Week:Daily,
    Summer Control Type Week Sch,    !- Name
    Summer Control Type Day Sch,    !- Sunday ScheduleDay Name
    Summer Control Type Day Sch,    !- Monday ScheduleDay Name
    Summer Control Type Day Sch,    !- Tuesday ScheduleDay Name
    Summer Control Type Day Sch,    !- Wednesday ScheduleDay Name
    Summer Control Type Day Sch,    !- Thursday ScheduleDay Name
    Summer Control Type Day Sch,    !- Friday ScheduleDay Name
    Summer Control Type Day Sch,    !- Saturday ScheduleDay Name
    Summer Control Type Day Sch,    !- Holiday ScheduleDay Name
    Summer Control Type Day Sch,    !- SummerDesignDay ScheduleDay Name
    Summer Control Type Day Sch,    !- WinterDesignDay ScheduleDay Name
    Summer Control Type Day Sch,    !- CustomDay1 ScheduleDay Name
    Summer Control Type Day Sch;    !- CustomDay2 ScheduleDay Name

Schedule:Week:Daily,
    Winter Control Type Week Sch,    !- Name
    Winter Control Type Day Sch,    !- Sunday ScheduleDay Name
    Winter Control Type Day Sch,    !- Monday ScheduleDay Name
    Winter Control Type Day Sch,    !- Tuesday ScheduleDay Name
    Winter Control Type Day Sch,    !- Wednesday ScheduleDay Name
    Winter Control Type Day Sch,    !- Thursday ScheduleDay Name
    Winter Control Type Day Sch,    !- Friday ScheduleDay Name
    Winter Control Type Day Sch,    !- Saturday ScheduleDay Name
    Winter Control Type Day Sch,    !- Holiday ScheduleDay Name
    Winter Control Type Day Sch,    !- SummerDesignDay ScheduleDay Name
    Winter Control Type Day Sch,    !- WinterDesignDay ScheduleDay Name
    Winter Control Type Day Sch,    !- CustomDay1 ScheduleDay Name
    Winter Control Type Day Sch;    !- CustomDay2 ScheduleDay Name

Schedule:Week:Daily,
    Summer Control Type Week Sch - cool,    !- Name
    Summer Control Type Day Sch - cool,    !- Sunday ScheduleDay Name
    Summer Control Type Day Sch - cool,    !- Monday ScheduleDay Name
    Summer Control Type Day Sch - cool,    !- Tuesday ScheduleDay Name
    Summer Control Type Day Sch - cool,    !- Wednesday ScheduleDay Name
    Summer Control Type Day Sch - cool,    !- Thursday ScheduleDay Name
    Summer Control Type Day Sch - cool,    !- Friday ScheduleDay Name
    Summer Control Type Day Sch - cool,    !- Saturday ScheduleDay Name
    Summer Control Type Day Sch - cool,    !- Holiday ScheduleDay Name
    Summer Control Type Day Sch - cool,    !- SummerDesignDay ScheduleDay Name
    Summer Control Type Day Sch - cool,    !- WinterDesignDay ScheduleDay Name
    Summer Control Type Day Sch - cool,    !- CustomDay1 ScheduleDay Name
    Summer Control Type Day Sch - cool;    !- CustomDay2 ScheduleDay Name

Schedule:Week:Daily,
    Winter Control Type Week Sch - heat,    !- Name
    Winter Control Type Day Sch - heat,    !- Sunday ScheduleDay Name
    Winter Control Type Day Sch - heat,    !- Monday ScheduleDay Name
    Winter Control Type Day Sch - heat,    !- Tuesday ScheduleDay Name
    Winter Control Type Day Sch - heat,    !- Wednesday ScheduleDay Name
    Winter Control Type Day Sch - heat,    !- Thursday ScheduleDay Name
    Winter Control Type Day Sch - heat,    !- Friday ScheduleDay Name
    Winter Control Type Day Sch - heat,    !- Saturday ScheduleDay Name
    Winter Control Type Day Sch - heat,    !- Holiday ScheduleDay Name
    Winter Control Type Day Sch - heat,    !- SummerDesignDay ScheduleDay Name
    Winter Control Type Day Sch - heat,    !- WinterDesignDay ScheduleDay Name
    Winter Control Type Day Sch - heat,    !- CustomDay1 ScheduleDay Name
    Winter Control Type Day Sch - heat;    !- CustomDay2 ScheduleDay Name

Schedule:Year,
    Zone Control Type Sched,    !- Name
    Control Type,             !- Schedule Type Limits Name
    Winter Control Type Week Sch,    !- ScheduleWeek Name 1
    1,                        !- Start Month 1
    1,                        !- Start Day 1
    3,                        !- End Month 1
    31,                       !- End Day 1
    Summer Control Type Week Sch,    !- ScheduleWeek Name 2
    4,                        !- Start Month 2
    1,                        !- Start Day 2
    9,                        !- End Month 2
    30,                       !- End Day 2
    Winter Control Type Week Sch,    !- ScheduleWeek Name 3
    10,                       !- Start Month 3
    1,                        !- Start Day 3
    12,                       !- End Month 3
    31;                       !- End Day 3

Schedule:Compact,
    On,                       !- Name
    Any Number,               !- Schedule Type Limits Name
    Through: 12/31,           !- Field 1
    For: AllDays,             !- Field 2
    Until: 24:00,             !- Field 3
    1;                        !- Field 4

Schedule:Compact,
    Off,                      !- Name
    Any Number,               !- Schedule Type Limits Name
    Through: 12/31,           !- Field 1
    For: AllDays,             !- Field 2
    Until: 24:00,             !- Field 3
    0;                        !- Field 4

Schedule:Compact,
    Work efficiency,          !- Name
    Any Number,               !- Schedule Type Limits Name
    Through: 12/31,           !- Field 1
    For: AllDays,             !- Field 2
    Until: 24:00,             !- Field 3
    0;                        !- Field 4

Schedule:Compact,
    OpaqueShade,              !- Name
    Any Number,               !- Schedule Type Limits Name
    Through: 12/31,           !- Field 1
    For: AllDays,             !- Field 2
    Until: 24:00,             !- Field 3
    0;                        !- Field 4

Schedule:Compact,
    Zone Comfort Control Type Sched,    !- Name
    Control Type,             !- Schedule Type Limits Name
    Through: 12/31,           !- Field 1
    For: AllDays,             !- Field 2
    Until: 24:00,             !- Field 3
    4;                        !- Field 4

Schedule:Compact,
    Design Days Only,         !- Name
    Any Number,               !- Schedule Type Limits Name
    Through: 12/31,           !- Field 1
    For: SummerDesignDay WinterDesignDay,    !- Field 2
    Until: 24:00,             !- Field 3
    1,                        !- Field 4
    For: AllOtherDays,        !- Field 5
    Until: 24:00,             !- Field 6
    0;                        !- Field 7

Schedule:Compact,
    AirVelocitySchedule,      !- Name
    Any Number,               !- Schedule Type Limits Name
    Through: 12/31,           !- Field 1
    For: AllDays,             !- Field 2
    Until: 24:00,             !- Field 3
    .137;                     !- Field 4

Schedule:Compact,
    2,                        !- Name
    Any Number,               !- Schedule Type Limits Name
    Through: 12/31,           !- Field 1
    For: AllDays,             !- Field 2
    Until: 24:00,             !- Field 3
    1;                        !- Field 4

Schedule:Compact,
    7,                        !- Name
    Any Number,               !- Schedule Type Limits Name
    Through: 12/31,           !- Field 1
    For: AllDays,             !- Field 2
    Until: 24:00,             !- Field 3
    0;                        !- Field 4

Schedule:Compact,
    10013,                    !- Name
    Fraction,                 !- Schedule Type Limits Name
    Through:12/31,            !- Field 1
    For: Weekdays SummerDesignDay,    !- Field 2
    Until: 01:00,             !- Field 3
    0.22,                     !- Field 4
    Until: 02:00,             !- Field 5
    0.17,                     !- Field 6
    Until: 03:00,             !- Field 7
    0.11,                     !- Field 8
    Until: 04:00,             !- Field 9
    0.11,                     !- Field 10
    Until: 05:00,             !- Field 11
    0.11,                     !- Field 12
    Until: 06:00,             !- Field 13
    0.22,                     !- Field 14
    Until: 07:00,             !- Field 15
    0.44,                     !- Field 16
    Until: 08:00,             !- Field 17
    0.56,                     !- Field 18
    Until: 09:00,             !- Field 19
    0.44,                     !- Field 20
    Until: 10:00,             !- Field 21
    0.44,                     !- Field 22
    Until: 11:00,             !- Field 23
    0.28,                     !- Field 24
    Until: 12:00,             !- Field 25
    0.28,                     !- Field 26
    Until: 13:00,             !- Field 27
    0.28,                     !- Field 28
    Until: 14:00,             !- Field 29
    0.28,                     !- Field 30
    Until: 15:00,             !- Field 31
    0.28,                     !- Field 32
    Until: 16:00,             !- Field 33
    0.28,                     !- Field 34
    Until: 17:00,             !- Field 35
    0.28,                     !- Field 36
    Until: 18:00,             !- Field 37
    0.28,                     !- Field 38
    Until: 19:00,             !- Field 39
    0.67,                     !- Field 40
    Until: 20:00,             !- Field 41
    0.89,                     !- Field 42
    Until: 21:00,             !- Field 43
    1,                        !- Field 44
    Until: 22:00,             !- Field 45
    0.89,                     !- Field 46
    Until: 23:00,             !- Field 47
    0.67,                     !- Field 48
    Until: 24:00,             !- Field 49
    0.33,                     !- Field 50
    For: Saturday,            !- Field 51
    Until: 01:00,             !- Field 52
    0.26,                     !- Field 53
    Until: 02:00,             !- Field 54
    0.26,                     !- Field 55
    Until: 03:00,             !- Field 56
    0.11,                     !- Field 57
    Until: 04:00,             !- Field 58
    0.11,                     !- Field 59
    Until: 05:00,             !- Field 60
    0.11,                     !- Field 61
    Until: 06:00,             !- Field 62
    0.11,                     !- Field 63
    Until: 07:00,             !- Field 64
    0.41,                     !- Field 65
    Until: 08:00,             !- Field 66
    0.41,                     !- Field 67
    Until: 09:00,             !- Field 68
    0.56,                     !- Field 69
    Until: 10:00,             !- Field 70
    0.56,                     !- Field 71
    Until: 11:00,             !- Field 72
    0.41,                     !- Field 73
    Until: 12:00,             !- Field 74
    0.33,                     !- Field 75
    Until: 13:00,             !- Field 76
    0.33,                     !- Field 77
    Until: 14:00,             !- Field 78
    0.33,                     !- Field 79
    Until: 15:00,             !- Field 80
    0.33,                     !- Field 81
    Until: 16:00,             !- Field 82
    0.33,                     !- Field 83
    Until: 17:00,             !- Field 84
    0.33,                     !- Field 85
    Until: 18:00,             !- Field 86
    0.33,                     !- Field 87
    Until: 19:00,             !- Field 88
    0.85,                     !- Field 89
    Until: 20:00,             !- Field 90
    1,                        !- Field 91
    Until: 21:00,             !- Field 92
    1,                        !- Field 93
    Until: 22:00,             !- Field 94
    1,                        !- Field 95
    Until: 23:00,             !- Field 96
    0.85,                     !- Field 97
    Until: 24:00,             !- Field 98
    0.41,                     !- Field 99
    For: AllOtherdays,        !- Field 100
    Until: 01:00,             !- Field 101
    0.26,                     !- Field 102
    Until: 02:00,             !- Field 103
    0.26,                     !- Field 104
    Until: 03:00,             !- Field 105
    0.11,                     !- Field 106
    Until: 04:00,             !- Field 107
    0.11,                     !- Field 108
    Until: 05:00,             !- Field 109
    0.11,                     !- Field 110
    Until: 06:00,             !- Field 111
    0.11,                     !- Field 112
    Until: 07:00,             !- Field 113
    0.41,                     !- Field 114
    Until: 08:00,             !- Field 115
    0.41,                     !- Field 116
    Until: 09:00,             !- Field 117
    0.56,                     !- Field 118
    Until: 10:00,             !- Field 119
    0.56,                     !- Field 120
    Until: 11:00,             !- Field 121
    0.41,                     !- Field 122
    Until: 12:00,             !- Field 123
    0.33,                     !- Field 124
    Until: 13:00,             !- Field 125
    0.33,                     !- Field 126
    Until: 14:00,             !- Field 127
    0.33,                     !- Field 128
    Until: 15:00,             !- Field 129
    0.33,                     !- Field 130
    Until: 16:00,             !- Field 131
    0.33,                     !- Field 132
    Until: 17:00,             !- Field 133
    0.33,                     !- Field 134
    Until: 18:00,             !- Field 135
    0.33,                     !- Field 136
    Until: 19:00,             !- Field 137
    0.85,                     !- Field 138
    Until: 20:00,             !- Field 139
    1,                        !- Field 140
    Until: 21:00,             !- Field 141
    1,                        !- Field 142
    Until: 22:00,             !- Field 143
    1,                        !- Field 144
    Until: 23:00,             !- Field 145
    0.85,                     !- Field 146
    Until: 24:00,             !- Field 147
    0.41;                     !- Field 148

Schedule:Compact,
    10017,                    !- Name
    Fraction,                 !- Schedule Type Limits Name
    Through:12/31,            !- Field 1
    For: Weekdays SummerDesignDay,    !- Field 2
    Until: 01:00,             !- Field 3
    0.65,                     !- Field 4
    Until: 02:00,             !- Field 5
    0.65,                     !- Field 6
    Until: 03:00,             !- Field 7
    0.65,                     !- Field 8
    Until: 04:00,             !- Field 9
    0.65,                     !- Field 10
    Until: 05:00,             !- Field 11
    0.65,                     !- Field 12
    Until: 06:00,             !- Field 13
    0.65,                     !- Field 14
    Until: 07:00,             !- Field 15
    0.5,                      !- Field 16
    Until: 08:00,             !- Field 17
    0.28,                     !- Field 18
    Until: 09:00,             !- Field 19
    0.28,                     !- Field 20
    Until: 10:00,             !- Field 21
    0.13,                     !- Field 22
    Until: 11:00,             !- Field 23
    0.13,                     !- Field 24
    Until: 12:00,             !- Field 25
    0.13,                     !- Field 26
    Until: 13:00,             !- Field 27
    0.13,                     !- Field 28
    Until: 14:00,             !- Field 29
    0.13,                     !- Field 30
    Until: 15:00,             !- Field 31
    0.13,                     !- Field 32
    Until: 16:00,             !- Field 33
    0.2,                      !- Field 34
    Until: 17:00,             !- Field 35
    0.35,                     !- Field 36
    Until: 18:00,             !- Field 37
    0.35,                     !- Field 38
    Until: 19:00,             !- Field 39
    0.35,                     !- Field 40
    Until: 20:00,             !- Field 41
    0.5,                      !- Field 42
    Until: 21:00,             !- Field 43
    0.5,                      !- Field 44
    Until: 22:00,             !- Field 45