!- Windows Line endings 

Version,
    9.0;                      !- Version Identifier

SimulationControl,
    No,                       !- Do Zone Sizing Calculation
    No,                       !- Do System Sizing Calculation
    No,                       !- Do Plant Sizing Calculation
    No,                       !- Run Simulation for Sizing Periods
    Yes;                      !- Run Simulation for Weather File Run Periods

Building,
    bldg,                     !- Name
    0,                        !- North Axis
    City,                     !- Terrain
    0.04,                     !- Loads Convergence Tolerance Value
    0.4,                      !- Temperature Convergence Tolerance Value
    FullInteriorAndExterior,    !- Solar Distribution
    25,                       !- Maximum Number of Warmup Days
    6;                        !- Minimum Number of Warmup Days

Timestep,
    1;                        !- Number of Timesteps per Hour

Site:Location,
    DENVER_STAPLETON_CO_USA_WMO_724690,    !- Name
    39.77,                    !- Latitude
    -104.87,                  !- Longitude
    -7,                       !- Time Zone
    1611;                     !- Elevation

SizingPeriod:DesignDay,
    Summer Design Day in Untitled,    !- Name
    7,                        !- Month
    15,                       !- Day of Month
    SummerDesignDay,          !- Day Type
    32,                       !- Maximum DryBulb Temperature
    7.9,                      !- Daily DryBulb Temperature Range
    ,                         !- DryBulb Temperature Range Modifier Type
    ,                         !- DryBulb Temperature Range Modifier Day Schedule Name
    WetBulb,                  !- Humidity Condition Type
    25.2,                     !- Wetbulb or DewPoint at Maximum DryBulb
    ,                         !- Humidity Condition Day Schedule Name
    ,                         !- Humidity Ratio at Maximum DryBulb
    ,                         !- Enthalpy at Maximum DryBulb
    ,                         !- Daily WetBulb Temperature Range
    101097,                   !- Barometric Pressure
    0,                        !- Wind Speed
    0,                        !- Wind Direction
    No,                       !- Rain Indicator
    No,                       !- Snow Indicator
    No,                       !- Daylight Saving Time Indicator
    ,                         !- Solar Model Indicator
    ,                         !- Beam Solar Day Schedule Name
    ,                         !- Diffuse Solar Day Schedule Name
    ,                         !- ASHRAE Clear Sky Optical Depth for Beam Irradiance taub
    ,                         !- ASHRAE Clear Sky Optical Depth for Diffuse Irradiance taud
    0.98;                     !- Sky Clearness

SizingPeriod:DesignDay,
    Winter Design Day in Untitled,    !- Name
    1,                        !- Month
    15,                       !- Day of Month
    WinterDesignDay,          !- Day Type
    -13.9,                    !- Maximum DryBulb Temperature
    0,                        !- Daily DryBulb Temperature Range
    ,                         !- DryBulb Temperature Range Modifier Type
    ,                         !- DryBulb Temperature Range Modifier Day Schedule Name
    WetBulb,                  !- Humidity Condition Type
    -13.9,                    !- Wetbulb or DewPoint at Maximum DryBulb
    ,                         !- Humidity Condition Day Schedule Name
    ,                         !- Humidity Ratio at Maximum DryBulb
    ,                         !- Enthalpy at Maximum DryBulb
    ,                         !- Daily WetBulb Temperature Range
    101097,                   !- Barometric Pressure
    9.4,                      !- Wind Speed
    0,                        !- Wind Direction
    No,                       !- Rain Indicator
    No,                       !- Snow Indicator
    No,                       !- Daylight Saving Time Indicator
    ,                         !- Solar Model Indicator
    ,                         !- Beam Solar Day Schedule Name
    ,                         !- Diffuse Solar Day Schedule Name
    ,                         !- ASHRAE Clear Sky Optical Depth for Beam Irradiance taub
    ,                         !- ASHRAE Clear Sky Optical Depth for Diffuse Irradiance taud
    0;                        !- Sky Clearness

RunPeriod,
    ,                         !- Name
    1,                        !- Begin Month
    1,                        !- Begin Day of Month
    ,                         !- Begin Year
    12,                       !- End Month
    31,                       !- End Day of Month
    ,                         !- End Year
    Wednesday,                !- Day of Week for Start Day
    Yes,                      !- Use Weather File Holidays and Special Days
    Yes,                      !- Use Weather File Daylight Saving Period
    No,                       !- Apply Weekend Holiday Rule
    Yes,                      !- Use Weather File Rain Indicators
    Yes;                      !- Use Weather File Snow Indicators

ScheduleTypeLimits,
    Any Number;               !- Name

ScheduleTypeLimits,
    Fraction,                 !- Name
    0,                        !- Lower Limit Value
    1,                        !- Upper Limit Value
    CONTINUOUS;               !- Numeric Type

ScheduleTypeLimits,
    Temperature,              !- Name
    -60,                      !- Lower Limit Value
    200,                      !- Upper Limit Value
    CONTINUOUS;               !- Numeric Type

ScheduleTypeLimits,
    Control Type,             !- Name
    0,                        !- Lower Limit Value
    4,                        !- Upper Limit Value
    DISCRETE;                 !- Numeric Type

ScheduleTypeLimits,
    On/Off,                   !- Name
    0,                        !- Lower Limit Value
    1,                        !- Upper Limit Value
    DISCRETE;                 !- Numeric Type

Schedule:Day:Hourly,
    0,                        !- Name
    Any Number,               !- Schedule Type Limits Name
    0,                        !- Hour 1
    0,                        !- Hour 2
    0,                        !- Hour 3
    0,                        !- Hour 4
    0,                        !- Hour 5
    0,                        !- Hour 6
    0,                        !- Hour 7
    0,                        !- Hour 8
    0,                        !- Hour 9
    0,                        !- Hour 10
    0,                        !- Hour 11
    0,                        !- Hour 12
    0,                        !- Hour 13
    0,                        !- Hour 14
    0,                        !- Hour 15
    0,                        !- Hour 16
    0,                        !- Hour 17
    0,                        !- Hour 18
    0,                        !- Hour 19
    0,                        !- Hour 20
    0,                        !- Hour 21
    0,                        !- Hour 22
    0,                        !- Hour 23
    0;                        !- Hour 24

Schedule:Day:Hourly,
    50,                       !- Name
    Any Number,               !- Schedule Type Limits Name
    50,                       !- Hour 1
    50,                       !- Hour 2
    50,                       !- Hour 3
    50,                       !- Hour 4
    50,                       !- Hour 5
    50,                       !- Hour 6
    50,                       !- Hour 7
    50,                       !- Hour 8
    50,                       !- Hour 9
    50,                       !- Hour 10
    50,                       !- Hour 11
    50,                       !- Hour 12
    50,                       !- Hour 13
    50,                       !- Hour 14
    50,                       !- Hour 15
    50,                       !- Hour 16
    50,                       !- Hour 17
    50,                       !- Hour 18
    50,                       !- Hour 19
    50,                       !- Hour 20
    50,                       !- Hour 21
    50,                       !- Hour 22
    50,                       !- Hour 23
    50;                       !- Hour 24

Schedule:Day:Hourly,
    Off,                      !- Name
    Fraction,                 !- Schedule Type Limits Name
    0,                        !- Hour 1
    0,                        !- Hour 2
    0,                        !- Hour 3
    0,                        !- Hour 4
    0,                        !- Hour 5
    0,                        !- Hour 6
    0,                        !- Hour 7
    0,                        !- Hour 8
    0,                        !- Hour 9
    0,                        !- Hour 10
    0,                        !- Hour 11
    0,                        !- Hour 12
    0,                        !- Hour 13
    0,                        !- Hour 14
    0,                        !- Hour 15
    0,                        !- Hour 16
    0,                        !- Hour 17
    0,                        !- Hour 18
    0,                        !- Hour 19
    0,                        !- Hour 20
    0,                        !- Hour 21
    0,                        !- Hour 22
    0,                        !- Hour 23
    0;                        !- Hour 24

Schedule:Day:Hourly,
    Summer Control Type Day Sch,    !- Name
    Control Type,             !- Schedule Type Limits Name
    4,                        !- Hour 1
    4,                        !- Hour 2
    4,                        !- Hour 3
    4,                        !- Hour 4
    4,                        !- Hour 5
    4,                        !- Hour 6
    4,                        !- Hour 7
    4,                        !- Hour 8
    4,                        !- Hour 9
    4,                        !- Hour 10
    4,                        !- Hour 11
    4,                        !- Hour 12
    4,                        !- Hour 13
    4,                        !- Hour 14
    4,                        !- Hour 15
    4,                        !- Hour 16
    4,                        !- Hour 17
    4,                        !- Hour 18
    4,                        !- Hour 19
    4,                        !- Hour 20
    4,                        !- Hour 21
    4,                        !- Hour 22
    4,                        !- Hour 23
    4;                        !- Hour 24

Schedule:Day:Hourly,
    Winter Control Type Day Sch,    !- Name
    Control Type,             !- Schedule Type Limits Name
    4,                        !- Hour 1
    4,                        !- Hour 2
    4,                        !- Hour 3
    4,                        !- Hour 4
    4,                        !- Hour 5
    4,                        !- Hour 6
    4,                        !- Hour 7
    4,                        !- Hour 8
    4,                        !- Hour 9
    4,                        !- Hour 10
    4,                        !- Hour 11
    4,                        !- Hour 12
    4,                        !- Hour 13
    4,                        !- Hour 14
    4,                        !- Hour 15
    4,                        !- Hour 16
    4,                        !- Hour 17
    4,                        !- Hour 18
    4,                        !- Hour 19
    4,                        !- Hour 20
    4,                        !- Hour 21
    4,                        !- Hour 22
    4,                        !- Hour 23
    4;                        !- Hour 24

Schedule:Day:Hourly,
    Summer Control Type Day Sch - cool,    !- Name
    Control Type,             !- Schedule Type Limits Name
    2,                        !- Hour 1
    2,                        !- Hour 2
    2,                        !- Hour 3
    2,                        !- Hour 4
    2,                        !- Hour 5
    2,                        !- Hour 6
    2,                        !- Hour 7
    2,                        !- Hour 8
    2,                        !- Hour 9
    2,                        !- Hour 10
    2,                        !- Hour 11
    2,                        !- Hour 12
    2,                        !- Hour 13
    2,                        !- Hour 14
    2,                        !- Hour 15
    2,                        !- Hour 16
    2,                        !- Hour 17
    2,                        !- Hour 18
    2,                        !- Hour 19
    2,                        !- Hour 20
    2,                        !- Hour 21
    2,                        !- Hour 22
    2,                        !- Hour 23
    2;                        !- Hour 24

Schedule:Day:Hourly,
    Winter Control Type Day Sch - heat,    !- Name
    Control Type,             !- Schedule Type Limits Name
    1,                        !- Hour 1
    1,                        !- Hour 2
    1,                        !- Hour 3
    1,                        !- Hour 4
    1,                        !- Hour 5
    1,                        !- Hour 6
    1,                        !- Hour 7
    1,                        !- Hour 8
    1,                        !- Hour 9
    1,                        !- Hour 10
    1,                        !- Hour 11
    1,                        !- Hour 12
    1,                        !- Hour 13
    1,                        !- Hour 14
    1,                        !- Hour 15
    1,                        !- Hour 16
    1,                        !- Hour 17
    1,                        !- Hour 18
    1,                        !- Hour 19
    1,                        !- Hour 20
    1,                        !- Hour 21
    1,                        !- Hour 22
    1,                        !- Hour 23
    1;                        !- Hour 24

Schedule:Day:Interval,
    11,                       !- Name
    Any number,               !- Schedule Type Limits Name
    No,                       !- Interpolate to Timestep
    24:00,                    !- Time 1
    0;                        !- Value Until Time 1

Schedule:Day:Interval,
    12,                       !- Name
    Any number,               !- Schedule Type Limits Name
    No,                       !- Interpolate to Timestep
    24:00,                    !- Time 1
    1;                        !- Value Until Time 1

Schedule:Day:Interval,
    11_-50_12_21,             !- Name
    Any number,               !- Schedule Type Limits Name
    No,                       !- Interpolate to Timestep
    24:00,                    !- Time 1
    -50;                      !- Value Until Time 1

Schedule:Day:Interval,
    12_-50_12_21,             !- Name
    Any number,               !- Schedule Type Limits Name
    No,                       !- Interpolate to Timestep
    24:00,                    !- Time 1
    21;                       !- Value Until Time 1

Schedule:Day:Interval,
    11_0_1_1,                 !- Name
    Any number,               !- Schedule Type Limits Name
    No,                       !- Interpolate to Timestep
    24:00,                    !- Time 1
    0;                        !- Value Until Time 1

Schedule:Day:Interval,
    12_0_1_1,                 !- Name
    Any number,               !- Schedule Type Limits Name
    No,                       !- Interpolate to Timestep
    24:00,                    !- Time 1
    1;                        !- Value Until Time 1

Schedule:Day:List,
    10000,                    !- Name
    Any number,               !- Schedule Type Limits Name
    No,                       !- Interpolate to Timestep
    60,                       !- Minutes per Item
    1,                        !- Value 1
    1,                        !- Value 2
    1,                        !- Value 3
    1,                        !- Value 4
    1,                        !- Value 5
    1,                        !- Value 6
    1,                        !- Value 7
    0,                        !- Value 8
    0,                        !- Value 9
    0,                        !- Value 10
    0,                        !- Value 11
    0,                        !- Value 12
    0,                        !- Value 13
    0,                        !- Value 14
    0,                        !- Value 15
    0,                        !- Value 16
    0,                        !- Value 17
    0.35,                     !- Value 18
    0.35,                     !- Value 19
    1,                        !- Value 20
    1,                        !- Value 21
    1,                        !- Value 22
    1,                        !- Value 23
    1;                        !- Value 24

Schedule:Day:List,
    10001,                    !- Name
    Any number,               !- Schedule Type Limits Name
    No,                       !- Interpolate to Timestep
    60,                       !- Minutes per Item
    1,                        !- Value 1
    1,                        !- Value 2
    1,                        !- Value 3
    1,                        !- Value 4
    1,                        !- Value 5
    1,                        !- Value 6
    1,                        !- Value 7
    1,                        !- Value 8
    1,                        !- Value 9
    1,                        !- Value 10
    0,                        !- Value 11
    0,                        !- Value 12
    0,                        !- Value 13
    0,                        !- Value 14
    0,                        !- Value 15
    0,                        !- Value 16
    0,                        !- Value 17
    1,                        !- Value 18
    1,                        !- Value 19
    1,                        !- Value 20
    1,                        !- Value 21
    1,                        !- Value 22
    1,                        !- Value 23
    1;                        !- Value 24

Schedule:Day:List,
    10004,                    !- Name
    Any number,               !- Schedule Type Limits Name
    No,                       !- Interpolate to Timestep
    60,                       !- Minutes per Item
    0,                        !- Value 1
    0,                        !- Value 2
    0,                        !- Value 3
    0,                        !- Value 4
    0,                        !- Value 5
    0,                        !- Value 6
    0,                        !- Value 7
    0,                        !- Value 8
    0,                        !- Value 9
    0,                        !- Value 10
    0,                        !- Value 11
    0,                        !- Value 12
    0,                        !- Value 13
    0,                        !- Value 14
    0,                        !- Value 15
    0,                        !- Value 16
    0,                        !- Value 17
    0,                        !- Value 18
    0,                        !- Value 19
    0.7,                      !- Value 20
    1,                        !- Value 21
    1,                        !- Value 22
    0,                        !- Value 23
    0;                        !- Value 24

Schedule:Day:List,
    10001_-50_12_21,          !- Name
    Any number,               !- Schedule Type Limits Name
    No,                       !- Interpolate to Timestep
    60,                       !- Minutes per Item
    22.5505,                  !- Value 1
    22.5505,                  !- Value 2
    22.5505,                  !- Value 3
    22.5505,                  !- Value 4
    22.5505,                  !- Value 5
    22.5505,                  !- Value 6
    22.5505,                  !- Value 7
    22.5505,                  !- Value 8
    22.5505,                  !- Value 9
    22.5505,                  !- Value 10
    -50,                      !- Value 11
    -50,                      !- Value 12
    -50,                      !- Value 13
    -50,                      !- Value 14
    -50,                      !- Value 15
    -50,                      !- Value 16
    -50,                      !- Value 17
    22.5505,                  !- Value 18
    22.5505,                  !- Value 19
    22.5505,                  !- Value 20
    22.5505,                  !- Value 21
    22.5505,                  !- Value 22
    22.5505,                  !- Value 23
    22.5505;                  !- Value 24

Schedule:Day:List,
    10000_-50_12_21,          !- Name
    Any number,               !- Schedule Type Limits Name
    No,                       !- Interpolate to Timestep
    60,                       !- Minutes per Item
    22.5505,                  !- Value 1
    22.5505,                  !- Value 2
    22.5505,                  !- Value 3
    22.5505,                  !- Value 4
    22.5505,                  !- Value 5
    22.5505,                  !- Value 6
    22.5505,                  !- Value 7
    -50,                      !- Value 8
    -50,                      !- Value 9
    -50,                      !- Value 10
    -50,                      !- Value 11
    -50,                      !- Value 12
    -50,                      !- Value 13
    -50,                      !- Value 14
    -50,                      !- Value 15
    -50,                      !- Value 16
    -50,                      !- Value 17
    12,                       !- Value 18
    12,                       !- Value 19
    22.5505,                  !- Value 20
    22.5505,                  !- Value 21
    22.5505,                  !- Value 22
    22.5505,                  !- Value 23
    22.5505;                  !- Value 24

Schedule:Day:List,
    10001_0_1_1,              !- Name
    Any number,               !- Schedule Type Limits Name
    No,                       !- Interpolate to Timestep
    60,                       !- Minutes per Item
    1,                        !- Value 1
    1,                        !- Value 2
    1,                        !- Value 3
    1,                        !- Value 4
    1,                        !- Value 5
    1,                        !- Value 6
    1,                        !- Value 7
    1,                        !- Value 8
    1,                        !- Value 9
    1,                        !- Value 10
    0,                        !- Value 11
    0,                        !- Value 12
    0,                        !- Value 13
    0,                        !- Value 14
    0,                        !- Value 15
    0,                        !- Value 16
    0,                        !- Value 17
    1,                        !- Value 18
    1,                        !- Value 19
    1,                        !- Value 20
    1,                        !- Value 21
    1,                        !- Value 22
    1,                        !- Value 23
    1;                        !- Value 24

Schedule:Day:List,
    10000_0_1_1,              !- Name
    Any number,               !- Schedule Type Limits Name
    No,                       !- Interpolate to Timestep
    60,                       !- Minutes per Item
    1,                        !- Value 1
    1,                        !- Value 2
    1,                        !- Value 3
    1,                        !- Value 4
    1,                        !- Value 5
    1,                        !- Value 6
    1,                        !- Value 7
    0,                        !- Value 8
    0,                        !- Value 9
    0,                        !- Value 10
    0,                        !- Value 11
    0,                        !- Value 12
    0,                        !- Value 13
    0,                        !- Value 14
    0,                        !- Value 15
    0,                        !- Value 16
    0,                        !- Value 17
    1,                        !- Value 18
    1,                        !- Value 19
    1,                        !- Value 20
    1,                        !- Value 21
    1,                        !- Value 22
    1,                        !- Value 23
    1;                        !- Value 24

Schedule:Week:Daily,
    Off,                      !- Name
    Off,                      !- Sunday ScheduleDay Name
    Off,                      !- Monday ScheduleDay Name
    Off,                      !- Tuesday ScheduleDay Name
    Off,                      !- Wednesday ScheduleDay Name
    Off,                      !- Thursday ScheduleDay Name
    Off,                      !- Friday ScheduleDay Name
    Off,                      !- Saturday ScheduleDay Name
    Off,                      !- Holiday ScheduleDay Name
    Off,                      !- SummerDesignDay ScheduleDay Name
    Off,                      !- WinterDesignDay ScheduleDay Name
    Off,                      !- CustomDay1 ScheduleDay Name
    Off;                      !- CustomDay2 ScheduleDay Name

Schedule:Week:Daily,
    Summer Control Type Week Sch,    !- Name
    Summer Control Type Day Sch,    !- Sunday ScheduleDay Name
    Summer Control Type Day Sch,    !- Monday ScheduleDay Name
    Summer Control Type Day Sch,    !- Tuesday ScheduleDay Name
    Summer Control Type Day Sch,    !- Wednesday ScheduleDay Name
    Summer Control Type Day Sch,    !- Thursday ScheduleDay Name
    Summer Control Type Day Sch,    !- Friday ScheduleDay Name
    Summer Control Type Day Sch,    !- Saturday ScheduleDay Name
    Summer Control Type Day Sch,    !- Holiday ScheduleDay Name
    Summer Control Type Day Sch,    !- SummerDesignDay ScheduleDay Name
    Summer Control Type Day Sch,    !- WinterDesignDay ScheduleDay Name
    Summer Control Type Day Sch,    !- CustomDay1 ScheduleDay Name
    Summer Control Type Day Sch;    !- CustomDay2 ScheduleDay Name

Schedule:Week:Daily,
    Winter Control Type Week Sch,    !- Name
    Winter Control Type Day Sch,    !- Sunday ScheduleDay Name
    Winter Control Type Day Sch,    !- Monday ScheduleDay Name
    Winter Control Type Day Sch,    !- Tuesday ScheduleDay Name
    Winter Control Type Day Sch,    !- Wednesday ScheduleDay Name
    Winter Control Type Day Sch,    !- Thursday ScheduleDay Name
    Winter Control Type Day Sch,    !- Friday ScheduleDay Name
    Winter Control Type Day Sch,    !- Saturday ScheduleDay Name
    Winter Control Type Day Sch,    !- Holiday ScheduleDay Name
    Winter Control Type Day Sch,    !- SummerDesignDay ScheduleDay Name
    Winter Control Type Day Sch,    !- WinterDesignDay ScheduleDay Name
    Winter Control Type Day Sch,    !- CustomDay1 ScheduleDay Name
    Winter Control Type Day Sch;    !- CustomDay2 ScheduleDay Name

Schedule:Week:Daily,
    Summer Control Type Week Sch - cool,    !- Name
    Summer Control Type Day Sch - cool,    !- Sunday ScheduleDay Name
    Summer Control Type Day Sch - cool,    !- Monday ScheduleDay Name
    Summer Control Type Day Sch - cool,    !- Tuesday ScheduleDay Name
    Summer Control Type Day Sch - cool,    !- Wednesday ScheduleDay Name
    Summer Control Type Day Sch - cool,    !- Thursday ScheduleDay Name
    Summer Control Type Day Sch - cool,    !- Friday ScheduleDay Name
    Summer Control Type Day Sch - cool,    !- Saturday ScheduleDay Name
    Summer Control Type Day Sch - cool,    !- Holiday ScheduleDay Name
    Summer Control Type Day Sch - cool,    !- SummerDesignDay ScheduleDay Name
    Summer Control Type Day Sch - cool,    !- WinterDesignDay ScheduleDay Name
    Summer Control Type Day Sch - cool,    !- CustomDay1 ScheduleDay Name
    Summer Control Type Day Sch - cool;    !- CustomDay2 ScheduleDay Name

Schedule:Week:Daily,
    Winter Control Type Week Sch - heat,    !- Name
    Winter Control Type Day Sch - heat,    !- Sunday ScheduleDay Name
    Winter Control Type Day Sch - heat,    !- Monday ScheduleDay Name
    Winter Control Type Day Sch - heat,    !- Tuesday ScheduleDay Name
    Winter Control Type Day Sch - heat,    !- Wednesday ScheduleDay Name
    Winter Control Type Day Sch - heat,    !- Thursday ScheduleDay Name
    Winter Control Type Day Sch - heat,    !- Friday ScheduleDay Name
    Winter Control Type Day Sch - heat,    !- Saturday ScheduleDay Name
    Winter Control Type Day Sch - heat,    !- Holiday ScheduleDay Name
    Winter Control Type Day Sch - heat,    !- SummerDesignDay ScheduleDay Name
    Winter Control Type Day Sch - heat,    !- WinterDesignDay ScheduleDay Name
    Winter Control Type Day Sch - heat,    !- CustomDay1 ScheduleDay Name
    Winter Control Type Day Sch - heat;    !- CustomDay2 ScheduleDay Name

Schedule:Week:Daily,
    10000_Jan,                !- Name
    10001,                    !- Sunday ScheduleDay Name
    10000,                    !- Monday ScheduleDay Name
    10000,                    !- Tuesday ScheduleDay Name
    10000,                    !- Wednesday ScheduleDay Name
    10000,                    !- Thursday ScheduleDay Name
    10000,                    !- Friday ScheduleDay Name
    10001,                    !- Saturday ScheduleDay Name
    10001,                    !- Holiday ScheduleDay Name
    10000,                    !- SummerDesignDay ScheduleDay Name
    11,                       !- WinterDesignDay ScheduleDay Name
    10000,                    !- CustomDay1 ScheduleDay Name
    10000;                    !- CustomDay2 ScheduleDay Name

Schedule:Week:Daily,
    10000_Feb,                !- Name
    10001,                    !- Sunday ScheduleDay Name
    10000,                    !- Monday ScheduleDay Name
    10000,                    !- Tuesday ScheduleDay Name
    10000,                    !- Wednesday ScheduleDay Name
    10000,                    !- Thursday ScheduleDay Name
    10000,                    !- Friday ScheduleDay Name
    10001,                    !- Saturday ScheduleDay Name
    10001,                    !- Holiday ScheduleDay Name
    10000,                    !- SummerDesignDay ScheduleDay Name
    11,                       !- WinterDesignDay ScheduleDay Name
    10000,                    !- CustomDay1 ScheduleDay Name
    10000;                    !- CustomDay2 ScheduleDay Name

Schedule:Week:Daily,
    10000_Mar,                !- Name
    10001,                    !- Sunday ScheduleDay Name
    10000,                    !- Monday ScheduleDay Name